# generated using pymatgen
data_Cu3H14C9(N3O2)2
_symmetry_space_group_name_H-M   'P 1'
_cell_length_a   10.75428930
_cell_length_b   14.53238851
_cell_length_c   14.52818248
_cell_angle_alpha   114.12554819
_cell_angle_beta   104.26032507
_cell_angle_gamma   104.27832072
_symmetry_Int_Tables_number   1
_chemical_formula_structural   Cu3H14C9(N3O2)2
_chemical_formula_sum   'Cu9 H42 C27 N18 O12'
_cell_volume   1847.06398329
_cell_formula_units_Z   3
loop_
 _symmetry_equiv_pos_site_id
 _symmetry_equiv_pos_as_xyz
  1  'x, y, z'
loop_
 _atom_site_type_symbol
 _atom_site_label
 _atom_site_symmetry_multiplicity
 _atom_site_fract_x
 _atom_site_fract_y
 _atom_site_fract_z
 _atom_site_occupancy
 _atom_site_pbe_bader_charge
 _atom_site_pbe_bader_spin_density
 _atom_site_pbe_cm5_charge
 _atom_site_pbe_ddec_charge
 _atom_site_pbe_ddec_spin_density
 _atom_site_pbe_ddec_sum_bond_order
 _atom_site_pbe_magmom
Cu  Cu0  1  0.54569544  0.11117940  0.51012065  1  0.976495  0.445298  0.686619  0.72341  0.587961  2.472211  0.446
Cu  Cu1  1  0.43466468  0.39915795  0.88903514  1  0.974609  0.444634  0.686204  0.722571  0.587505  2.472526  0.445
Cu  Cu2  1  0.03559385  0.48980228  0.60090623  1  0.975315  0.444917  0.686013  0.721954  0.58721  2.472384  0.445
Cu  Cu3  1  0.03552939  0.60004249  0.48943221  1  0.971784  0.462554  0.680997  0.713984  0.609957  2.463836  0.463
Cu  Cu4  1  0.54642084  0.51072634  0.11101627  1  0.972993  0.461592  0.682338  0.716835  0.608703  2.463577  0.462
Cu  Cu5  1  0.43519245  0.88920645  0.39978147  1  0.97182  0.461698  0.681219  0.715709  0.60961  2.46314  0.462
Cu  Cu6  1  0.73640733  0.00029398  0.39645741  1  0.987867  -0.425745  0.696922  0.696924  -0.546529  2.266083  -0.428
Cu  Cu7  1  0.73630563  0.39627230  0.99966173  1  0.989424  -0.426631  0.696784  0.696712  -0.547431  2.266084  -0.429
Cu  Cu8  1  0.34015093  0.60360476  0.60392379  1  0.986038  -0.429369  0.697778  0.699134  -0.551118  2.265516  -0.431
H  H9  1  0.02306013  0.14682366  0.42702977  1  0.085937  2.6e-05  0.103135  0.163926  3e-05  1.006297  0.0
H  H10  1  0.12462538  0.29143213  0.50927246  1  0.097533  0.000139  0.098995  0.149724  5.1e-05  1.020294  0.0
H  H11  1  0.00694330  0.23771668  0.37481717  1  0.075124  -0.000128  0.105588  0.162331  -7.4e-05  0.968585  0.0
H  H12  1  0.61823231  0.36216765  0.59452650  1  0.044075  -4e-05  0.098827  0.143493  -6.9e-05  1.012898  0.0
H  H13  1  0.75173883  0.46316981  0.59278922  1  0.131257  0.001536  0.103903  0.181409  0.001549  0.995818  0.0
H  H14  1  0.78305589  0.44060361  0.70653884  1  0.086464  -0.000392  0.100316  0.148524  -0.000222  0.985307  0.0
H  H15  1  0.87612821  0.28029907  0.85268772  1  0.070597  4.1e-05  0.10274  0.163444  3.6e-05  1.006048  0.0
H  H16  1  0.83297260  0.21807409  0.70800691  1  0.08207  0.000152  0.099392  0.149917  5.5e-05  1.019956  0.0
H  H17  1  0.76885093  0.13729402  0.76166718  1  0.0503  -0.000125  0.105783  0.162678  -7.2e-05  0.968551  0.0
H  H18  1  0.25602508  0.23271013  0.63808542  1  0.039614  7e-06  0.098401  0.142176  -4.8e-05  1.013651  0.0
H  H19  1  0.28845677  0.12988863  0.53703538  1  0.12702  0.001565  0.10384  0.180752  0.001549  0.994423  0.0
H  H20  1  0.34209115  0.26607645  0.55927971  1  0.035294  -0.00039  0.100182  0.147791  -0.000223  0.986403  0.0
H  H21  1  0.59587280  0.57277686  0.72000129  1  0.119573  2.2e-05  0.102924  0.163747  3e-05  1.007495  0.0
H  H22  1  0.61490692  0.49018396  0.78201769  1  0.080317  0.000156  0.099315  0.149581  5.6e-05  1.020814  0.0
H  H23  1  0.63160647  0.62454540  0.86302178  1  0.090584  -0.000117  0.105649  0.162659  -6.9e-05  0.968199  0.0
H  H24  1  0.02347253  0.40570290  0.76774691  1  0.031282  -4.3e-05  0.097983  0.141576  -7.3e-05  1.014302  0.0
H  H25  1  0.15855689  0.40741464  0.87054208  1  0.128667  0.001529  0.10413  0.180822  0.001531  0.995221  0.0
H  H26  1  0.07605336  0.29352706  0.73433728  1  0.041595  -0.000374  0.100511  0.148382  -0.000215  0.986058  0.0
H  H27  1  0.59630059  0.71996355  0.57382633  1  0.112152  2.4e-05  0.102796  0.163088  3.1e-05  1.006576  0.0
H  H28  1  0.61512206  0.78141410  0.49070706  1  0.085199  0.000165  0.099469  0.150165  5.9e-05  1.018507  0.0
H  H29  1  0.63252674  0.86301570  0.62520974  1  0.081464  -0.000123  0.105578  0.162361  -7.2e-05  0.968243  0.0
H  H30  1  0.02377999  0.76723101  0.40620491  1  0.073874  -3.2e-05  0.098178  0.141473  -6.4e-05  1.014503  0.0
H  H31  1  0.15879567  0.87052130  0.40838341  1  0.131021  0.001503  0.104011  0.180649  0.001506  0.994375  0.0
H  H32  1  0.07701519  0.73445014  0.29433077  1  0.053148  -0.000384  0.100549  0.147519  -0.00022  0.98695  0.0
H  H33  1  0.02241778  0.42587173  0.14570268  1  0.101885  2.6e-05  0.102757  0.162915  3.1e-05  1.005782  0.0
H  H34  1  0.12436372  0.50862662  0.29025000  1  0.051546  0.000152  0.099211  0.149591  5.5e-05  1.018186  0.0
H  H35  1  0.00720351  0.37411906  0.23712179  1  0.073408  -0.00013  0.105774  0.161846  -7.5e-05  0.968523  0.0
H  H36  1  0.61793430  0.59356603  0.36131564  1  0.041667  -1.8e-05  0.098238  0.142085  -5.8e-05  1.013293  0.0
H  H37  1  0.75071336  0.59105328  0.46224037  1  0.121217  0.001516  0.104077  0.181148  0.001519  0.995369  0.0
H  H38  1  0.78305842  0.70524931  0.44042399  1  0.054315  -0.000406  0.100024  0.147669  -0.000228  0.985784  0.0
H  H39  1  0.87670925  0.85416488  0.28031507  1  0.097791  3.6e-05  0.103087  0.163365  3.5e-05  1.006134  0.0
H  H40  1  0.83411642  0.70963188  0.21861972  1  0.086942  0.000159  0.099304  0.150024  5.7e-05  1.018029  0.0
H  H41  1  0.76996088  0.76271597  0.13724077  1  0.059638  -0.000132  0.105728  0.162213  -7.5e-05  0.968934  0.0
H  H42  1  0.25670595  0.63876832  0.23252488  1  0.041742  4.1e-05  0.097949  0.14184  -3.1e-05  1.014109  0.0
H  H43  1  0.28884645  0.53790957  0.12923025  1  0.13152  0.001542  0.104033  0.18137  0.001532  0.994615  0.0
H  H44  1  0.34278595  0.55972507  0.26524505  1  0.052072  -0.000404  0.100231  0.147757  -0.000229  0.9862  0.0
H  H45  1  0.48710338  0.99970335  0.30538897  1  0.602982  0.002542  0.313384  0.390477  0.001918  0.889682  0.001
H  H46  1  0.03404991  0.99972916  0.59114564  1  0.065291  -0.010898  0.101489  0.020306  -0.005871  0.952661  -0.006
H  H47  1  0.48776354  0.30592452  0.00051932  1  0.604696  0.002519  0.313513  0.390727  0.001918  0.889573  0.001
H  H48  1  0.03426160  0.59123919  0.99972341  1  0.063504  -0.010919  0.10149  0.020376  -0.005878  0.952642  -0.006
H  H49  1  0.18152235  0.69439142  0.69421157  1  0.593739  0.002497  0.31372  0.391255  0.001785  0.889459  0.001
H  H50  1  0.44483123  0.40948810  0.40970234  1  0.065084  -0.010955  0.102008  0.020504  -0.005912  0.951807  -0.006
C  C51  1  0.91141273  0.24287021  0.48850813  1  0.99452  0.001111  0.223041  0.401989  0.00131  3.978088  0.001
C  C52  1  0.02247491  0.22808020  0.44752982  1  -0.073905  0.000536  -0.232598  -0.478609  0.000285  3.9236  0.0
C  C53  1  0.78277231  0.31696995  0.56073809  1  0.980722  -0.003634  0.220378  0.402787  -0.002223  3.985545  -0.003
C  C54  1  0.73038219  0.40019348  0.61679893  1  -0.077399  0.003271  -0.234522  -0.481022  0.002065  3.927145  0.003
C  C55  1  0.66848995  0.24601800  0.75685371  1  0.98882  0.001187  0.222972  0.402562  0.001286  3.977072  0.001
C  C56  1  0.79420230  0.21969065  0.77144873  1  -0.024581  0.000568  -0.233156  -0.479179  0.000306  3.922806  0.0
C  C57  1  0.46580907  0.24419273  0.68302306  1  1.005085  -0.003406  0.220527  0.401419  -0.002067  3.984431  -0.003
C  C58  1  0.33009641  0.21692789  0.59991018  1  -0.024638  0.003302  -0.23349  -0.477101  0.002105  3.925839  0.003
C  C59  1  0.42256450  0.51113247  0.75428205  1  0.992149  0.001016  0.221931  0.400851  0.001198  3.980073  0.001
C  C60  1  0.57457562  0.55204563  0.78057503  1  -0.113026  0.000562  -0.232706  -0.47821  0.000308  3.925946  0.0
C  C61  1  0.22169446  0.43906648  0.75616675  1  1.011097  -0.00344  0.220307  0.401555  -0.002071  3.987137  -0.003
C  C62  1  0.11323758  0.38327219  0.78351471  1  -0.036763  0.00316  -0.233563  -0.47762  0.002002  3.928159  0.003
C  C63  1  0.42308760  0.75440305  0.51218275  1  0.948293  0.001466  0.222865  0.401297  0.001493  3.98152  0.001
C  C64  1  0.57504919  0.78044742  0.55288828  1  -0.062659  0.000535  -0.233169  -0.477745  0.000294  3.922848  0.0
C  C65  1  0.22232548  0.75624153  0.43999252  1  1.00593  -0.003222  0.219129  0.39907  -0.0019  3.988051  -0.002
C  C66  1  0.11380007  0.78344143  0.38409351  1  -0.095915  0.003099  -0.233147  -0.475363  0.001957  3.927657  0.003
C  C67  1  0.91100086  0.48742473  0.24204014  1  1.006598  0.001493  0.221297  0.40024  0.001594  3.980875  0.001
C  C68  1  0.02215018  0.44661515  0.22712619  1  -0.045144  0.000518  -0.232224  -0.476096  0.000274  3.922758  0.0
C  C69  1  0.78256019  0.55966257  0.31630685  1  0.977208  -0.003415  0.219384  0.400353  -0.002059  3.987104  -0.002
C  C70  1  0.73000848  0.61551627  0.39951819  1  -0.02981  0.003186  -0.233446  -0.477532  0.002015  3.926664  0.003
C  C71  1  0.66907688  0.75796058  0.24577469  1  0.960681  0.001633  0.22288  0.402821  0.001579  3.975292  0.001
C  C72  1  0.79504862  0.77278390  0.21975792  1  -0.038464  0.00054  -0.232921  -0.477986  0.000287  3.921596  0.0
C  C73  1  0.46633507  0.68379097  0.24373311  1  0.992336  -0.003176  0.219811  0.401364  -0.0019  3.98412  -0.002
C  C74  1  0.33062067  0.60057551  0.21635599  1  -0.039124  0.003294  -0.233216  -0.477559  0.002099  3.926361  0.003
C  C75  1  0.93379120  0.99994130  0.54628247  1  1.522019  0.001468  0.112272  0.453331  0.000493  4.30909  0.003
C  C76  1  0.93388388  0.54627846  0.99975713  1  1.524974  0.001477  0.112174  0.452126  0.000491  4.310074  0.003
C  C77  1  0.38893092  0.45419212  0.45440735  1  1.522183  0.001475  0.11207  0.453806  0.000502  4.307329  0.004
N  N78  1  0.79986468  0.16175143  0.47020044  1  -0.765428  -0.043441  -0.289088  -0.263996  -0.029984  3.546488  -0.04
N  N79  1  0.71872219  0.20887494  0.51643565  1  -0.777816  0.035737  -0.292472  -0.286359  0.025665  3.568388  0.031
N  N80  1  0.90389375  0.34087250  0.54561239  1  -1.200066  0.078062  -0.379265  -0.42108  0.054001  3.507617  0.069
N  N81  1  0.63825913  0.30892695  0.83812672  1  -0.764091  -0.044588  -0.287856  -0.262975  -0.030752  3.546406  -0.041
N  N82  1  0.50999216  0.30803691  0.79115642  1  -0.793124  0.035534  -0.293043  -0.2867  0.025488  3.569675  0.031
N  N83  1  0.56287672  0.20509077  0.65892132  1  -1.192524  0.076356  -0.380107  -0.421699  0.052984  3.508473  0.067
N  N84  1  0.32941628  0.52941089  0.69134088  1  -0.758428  -0.044773  -0.287564  -0.263891  -0.030901  3.546492  -0.041
N  N85  1  0.20203038  0.48325773  0.69223658  1  -0.794656  0.035582  -0.292426  -0.284918  0.025564  3.569132  0.031
N  N86  1  0.35784425  0.45413571  0.79525245  1  -1.185926  0.077225  -0.379096  -0.420263  0.0535  3.509366  0.068
N  N87  1  0.32986225  0.69138111  0.53037412  1  -0.771773  -0.045445  -0.289558  -0.265841  -0.031335  3.546235  -0.042
N  N88  1  0.20240138  0.69221270  0.48405998  1  -0.77894  0.036689  -0.29333  -0.285114  0.026319  3.567167  0.032
N  N89  1  0.35855680  0.79543565  0.45521948  1  -1.18072  0.078417  -0.377763  -0.418327  0.054334  3.506258  0.069
N  N90  1  0.79960129  0.46940236  0.16096227  1  -0.773062  -0.044297  -0.288518  -0.264058  -0.03055  3.547626  -0.04
N  N91  1  0.71853861  0.51574701  0.20823497  1  -0.778736  0.036662  -0.293803  -0.287168  0.026299  3.569214  0.032
N  N92  1  0.90353677  0.54431567  0.34012570  1  -1.204679  0.07939  -0.378191  -0.419068  0.05489  3.502822  0.07
N  N93  1  0.63860076  0.83906119  0.30867576  1  -0.774924  -0.044978  -0.289244  -0.265118  -0.03098  3.546272  -0.041
N  N94  1  0.51021561  0.79183902  0.30770306  1  -0.79669  0.03657  -0.294033  -0.287554  0.026224  3.567361  0.032
N  N95  1  0.56359797  0.65992917  0.20469864  1  -1.176501  0.07779  -0.379174  -0.420729  0.053981  3.501905  0.068
O  O96  1  0.54414783  0.00079095  0.36985277  1  -1.107707  0.067769  -0.576005  -0.783666  0.047502  2.513064  0.057
O  O97  1  0.38054603  0.00026355  0.47394432  1  -0.91811  0.41481  -0.573217  -0.793174  0.266928  1.812646  0.347
O  O98  1  0.92671085  0.00037265  0.45621404  1  -1.124289  -0.096147  -0.347175  -0.522099  -0.061441  2.335299  -0.086
O  O99  1  0.84120599  0.99974432  0.58372337  1  -1.176227  -0.002197  -0.34791  -0.548003  -0.001263  2.172398  -0.002
O  O100  1  0.54366304  0.36922481  0.99930656  1  -1.108914  0.067223  -0.575677  -0.783309  0.047127  2.512348  0.056
O  O101  1  0.38060301  0.47379295  0.00016535  1  -0.91823  0.414014  -0.573054  -0.792907  0.266454  1.813954  0.347
O  O102  1  0.92648441  0.45590401  0.99954740  1  -1.125695  -0.09636  -0.346888  -0.521148  -0.06156  2.33458  -0.087
O  O103  1  0.84151699  0.58388390  0.99996385  1  -1.17595  -0.002182  -0.347891  -0.54736  -0.001254  2.173524  -0.002
O  O104  1  0.17456142  0.63005460  0.63094418  1  -1.095406  0.065237  -0.57565  -0.783638  0.045963  2.513502  0.055
O  O105  1  0.90670814  0.52646227  0.52673794  1  -0.921847  0.41527  -0.573712  -0.793079  0.267075  1.814218  0.348
O  O106  1  0.47141049  0.54450602  0.54481999  1  -1.129984  -0.097113  -0.346322  -0.52121  -0.062127  2.33386  -0.087
O  O107  1  0.25898695  0.41640280  0.41654585  1  -1.17029  -0.002252  -0.347934  -0.547986  -0.001297  2.172243  -0.002
