data_POSCAR
  _audit_creation_date              2014-09-24
  _audit_creation_method            'ToBaCCo'
  _symmetry_space_group_name_H-M    'P1'
  _symmetry_Int_Tables_number       1
  _symmetry_cell_setting            triclinic
  loop_
  _symmetry_equiv_pos_as_xyz
 x,y,z
_cell_length_a 14.8115
_cell_length_b 14.9148
_cell_length_c 16.2029
_cell_angle_alpha 89.904000
_cell_angle_beta 90.266800
_cell_angle_gamma 120.043300
loop_
  _atom_site_label
  _atom_site_type_symbol
  _atom_site_fract_x
  _atom_site_fract_y
  _atom_site_fract_z
O1 O 0.34228 0.52208 0.33168
 O2 O 0.16462 0.51159 0.30203
 C3 C 0.15453 0.57723 0.34511
 O4 O 0.19866 0.67259 0.32670
 O5 O 0.36471 0.84881 0.29329
 C6 C 0.44246 0.86411 0.33714
 O7 O 0.49311 0.81792 0.32422
 O8 O 0.50316 0.65055 0.30481
 C9 C 0.43867 0.57497 0.34884
 O10 O 0.37217 0.51091 0.16845
 O11 O 0.19892 0.51059 0.13836
 C12 C 0.14686 0.55503 0.12243
 O13 O 0.15838 0.63267 0.16381
 O14 O 0.33148 0.80373 0.13081
 C15 C 0.42807 0.85061 0.11394
 O16 O 0.49546 0.84384 0.15851
 O17 O 0.49755 0.67175 0.13950
 C18 C 0.45064 0.57501 0.12663
 Cr19 Cr 0.27215 0.51915 0.23491
 Cr20 Cr 0.26601 0.73686 0.22866
 Cr21 Cr 0.49190 0.74335 0.23169
 O22 O 0.34358 0.66645 0.23135
 O23 O 0.52551 0.36671 0.66863
 O24 O 0.52594 0.19568 0.63479
 C25 C 0.57419 0.14803 0.61700
 O26 O 0.65124 0.15706 0.65894
 O27 O 0.82572 0.32976 0.63849
 C28 C 0.87572 0.42641 0.62547
 O29 O 0.86268 0.49045 0.66815
 O30 O 0.68866 0.49001 0.64201
 C31 C 0.59155 0.44472 0.62752
 O32 O 0.52958 0.32798 0.83120
 O33 O 0.51837 0.15200 0.79713
 C34 C 0.58163 0.13467 0.83777
 O35 O 0.67871 0.18218 0.82407
 O36 O 0.85678 0.35088 0.80371
 C37 C 0.86939 0.42669 0.84804
 O38 O 0.82563 0.47919 0.83207
 O39 O 0.65764 0.48903 0.80639
 C40 C 0.58147 0.42339 0.84948
 Cr41 Cr 0.53031 0.26330 0.73290
 Cr42 Cr 0.75043 0.25783 0.73132
 Cr43 Cr 0.75588 0.48173 0.73693
 O44 O 0.67901 0.33423 0.73344
 C45 C 0.55891 -0.04199 0.45694
 C46 C 0.47554 -0.06088 0.40571
 C47 C 0.42294 -0.00616 0.42538
 C48 C 0.45449 0.06248 0.49403
 C49 C 0.53933 0.07802 0.54496
 C50 C 0.58892 0.02338 0.52253
 C51 C 0.67329 0.00193 0.54720
 C52 C 0.63898 -0.07251 0.47291
 H53 H 0.35711 -0.01680 0.38853
 H54 H 0.41209 0.10244 0.50723
 H55 H 0.65779 -0.03805 0.60780
 H56 H 0.75217 0.07108 0.54022
 H57 H 0.60354 -0.15534 0.49077
 H58 H 0.69810 -0.04651 0.42305
 C59 C 1.07049 0.60697 0.46817
 C60 C 1.08945 0.54029 0.42005
 C61 C 1.04939 0.43784 0.44864
 C62 C 0.98253 0.40136 0.51723
 C63 C 0.95439 0.46656 0.55913
 C64 C 1.00453 0.57098 0.53584
 C65 C 0.96018 0.63935 0.51737
 C66 C 1.03248 0.67880 0.44327
 H67 H 1.06643 0.38453 0.41637
 H68 H 0.94975 0.32105 0.53517
 H69 H 0.98046 0.69927 0.56577
 H70 H 0.87613 0.59493 0.50023
 H71 H 1.09438 0.76140 0.44908
 H72 H 0.99044 0.65735 0.38308
 C73 C 0.40984 0.46599 0.47441
 C74 C 0.47754 0.54830 0.42374
 C75 C 0.58271 0.60746 0.44932
 C76 C 0.61987 0.57629 0.51750
 C77 C 0.55254 0.48552 0.56177
 C78 C 0.44633 0.43538 0.54144
 C79 C 0.37091 0.32335 0.52630
 C80 C 0.33080 0.35697 0.45281
 H81 H 0.63733 0.67527 0.41483
 H82 H 0.70198 0.62071 0.53308
 H83 H 0.31284 0.28824 0.57672
 H84 H 0.41009 0.27923 0.50858
 H85 H 0.24970 0.34136 0.46101
 H86 H 0.34656 0.33225 0.39244
 C87 C 0.39857 -0.06101 0.99339
 C88 C 0.46458 -0.08456 1.03896
 C89 C 0.56651 -0.04733 1.00881
 C90 C 0.60374 0.02106 0.94132
 C91 C 0.53991 0.05388 0.90228
 C92 C 0.43545 0.00677 0.92688
 C93 C 0.37134 0.05470 0.94924
 C94 C 0.33080 -0.01958 1.02191
 H95 H 0.61904 -0.06769 1.03923
 H96 H 0.68382 0.05154 0.92220
 H97 H 0.31038 0.03913 0.90215
 H98 H 0.41989 0.13721 0.96798
 H99 H 0.24651 -0.07793 1.01656
 H100 H 0.35546 0.01984 1.08284
 C101 C 1.01621 0.56520 1.04153
 C102 C 1.07512 0.51786 1.06116
 C103 C 1.05437 0.42929 1.01424
 C104 C 0.98591 0.39790 0.94584
 C105 C 0.93671 0.45421 0.92217
 C106 C 0.94902 0.53413 0.97440
 C107 C 0.97547 0.64238 0.95477
 C108 C 1.04949 0.67674 1.02824
 H109 H 1.09353 0.38611 1.02806
 H110 H 0.97480 0.33198 0.90986
 H111 H 0.90793 0.65442 0.96390
 H112 H 1.01598 0.66983 0.89458
 H113 H 1.02479 0.70897 1.07952
 H114 H 1.13297 0.72389 1.01064
 C115 C 0.43360 0.43058 1.03694
 C116 C 0.49014 0.53449 1.06155
 C117 C 0.58613 0.59861 1.02207
 C118 C 0.61736 0.56184 0.95429
 C119 C 0.55313 0.46023 0.92420
 C120 C 0.46433 0.39431 0.97004
 C121 C 0.35438 0.32587 0.94204
 C122 C 0.32077 0.36550 1.01534
 H123 H 0.63515 0.67836 1.04122
 H124 H 0.68981 0.61434 0.92369
 H125 H 0.32977 0.24242 0.94697
 H126 H 0.33778 0.34988 0.88145
 H127 H 0.27716 0.30490 1.06249
 H128 H 0.28460 0.41249 0.99735
   
